*Heading
 l_9.1475_b_20.5297_Cr_2.2905_CrC_X_0.1327_CrC_Y_-0.5025_Ld_16.9152_M_Steel_bc_BC1
** Job name: plate_1 Model name: Model_2
** Generated by: Abaqus/CAE Learning Edition 2025
*Preprint, echo=NO, model=NO, history=NO, contact=NO
**
** PARTS
**
*Part, name=Plate
*Node
      1,   3.80317783,   11.8672228
      2,   3.04631209,   11.3404284
      3,   2.55852866,   10.5578527
      4,   2.41888976,   9.64633846
      5,   2.65002871,   8.75362682
      6,   3.21448135,   8.02441406
      7,   4.02075863,   7.57689381
      8,   4.47472382,   7.48360205
      9,   5.39214134,   7.57689381
     10,   6.19841862,   8.02441406
     11,   6.76287127,   8.75362682
     12,   6.99400997,   9.64633846
     13,   6.85437107,   10.5578527
     14,   6.36658812,   11.3404284
     15,   5.60972214,   11.8672228
     16,   4.70644999,   12.0528498
     17,   9.14750004,           0.
     18,           0.,           0.
     19,   9.14750004,   20.5296993
     20,           0.,   20.5296993
** ... 162 like lines cut
*Element, type=CPS3
  1, 115,  63,  67
  2,  70,  67,  15
  3,  84,  33,  66
  4,  87,  32,  79
  5,  88,  31,  80
  6,  80,  11,  69
  7,  71,  69,  30
  8, 143, 124, 136
  9,  75,  74,   9
 10, 106,  76, 104
 11, 148, 147, 133
 12,  85,  27,  68
 13,  72,  68,   6
 14,  81,  25,  65
 15,  86,  77,  24
 16, 131,  57, 101
 17, 110,  73, 100
 18, 114,  83,  62
 19,  63,  62,  16
 20,  77,  65,   4
** ... 283 like lines cut
*Nset, nset=Set-1, generate
   1,  182,    1
*Elset, elset=Set-1, generate
   1,  303,    1
** Section: Steel
*Solid Section, elset=Set-1, material=Steel
,
*End Part
**  
**
** ASSEMBLY
**
*Assembly, name=Assembly
**  
*Instance, name=Plate-1, part=Plate
*End Instance
**  
*Nset, nset=Set-1, instance=Plate-1
 18, 20, 53, 54, 55, 56, 57, 58, 59, 60, 61
*Elset, elset=Set-1, instance=Plate-1
  49,  53,  57, 120, 200, 222, 245, 259, 264, 274
*Elset, elset=_Surf-1_S3, internal, instance=Plate-1
 36,
*Elset, elset=_Surf-1_S1, internal, instance=Plate-1
 40,
*Elset, elset=_Surf-1_S2, internal, instance=Plate-1
 126, 130, 162, 199, 249, 260, 270, 281
*Surface, type=ELEMENT, name=Surf-1
_Surf-1_S3, S3
_Surf-1_S1, S1
_Surf-1_S2, S2
*End Assembly
** 
** MATERIALS
** 
*Material, name=Steel
*Elastic
210000., 0.3
** ----------------------------------------------------------------
** 
** STEP: Step-1
** 
*Step, name=Step-1, nlgeom=YES
*Static
1., 1., 1e-05, 1.
** 
** BOUNDARY CONDITIONS
** 
** Name: Fix Type: Displacement/Rotation
*Boundary
Set-1, 1, 1
Set-1, 2, 2
Set-1, 6, 6
** 
** LOADS
** 
** Name: Pressure   Type: Pressure
*Dsload
Surf-1, P, -16.9152
** 
** OUTPUT REQUESTS
** 
*Restart, write, frequency=0
** 
** FIELD OUTPUT: F-Output-1
** 
*Output, field, variable=PRESELECT
** 
** HISTORY OUTPUT: H-Output-1
** 
*Output, history, variable=PRESELECT
*End Step
